/*--------------------------------*- C++ -*----------------------------------*\
  =========                 |
  \\      /  F ield         | OpenFOAM: The Open Source CFD Toolbox
   \\    /   O peration     | Website:  https://openfoam.org
    \\  /    A nd           | Version:  7
     \\/     M anipulation  |
\*---------------------------------------------------------------------------*/
FoamFile
{
    version     2.0;
    format      ascii;
    class       polyBoundaryMesh;
    location    "constant/polyMesh";
    object      boundary;
}
// * * * * * * * * * * * * * * * * * * * * * * * * * * * * * * * * * * * * * //

9
(
    inlet
    {
        type            patch;
        nFaces          79;
        startFace       32736;
    }
    outlet
    {
        type            patch;
        nFaces          0;
        startFace       32815;
    }
    bottom
    {
        type            patch;
        nFaces          0;
        startFace       32815;
    }
    top
    {
        type            patch;
        nFaces          208;
        startFace       32815;
    }
    obstacle
    {
        type            wall;
        inGroups        List<word> 1(wall);
        nFaces          0;
        startFace       33023;
    }
    defaultFaces
    {
        type            empty;
        inGroups        List<word> 1(empty);
        nFaces          33024;
        startFace       33023;
    }
    procBoundary12to8
    {
        type            processor;
        inGroups        List<word> 1(processor);
        nFaces          209;
        startFace       66047;
        matchTolerance  0.0001;
        transform       unknown;
        myProcNo        12;
        neighbProcNo    8;
    }
    procBoundary12to9
    {
        type            processor;
        inGroups        List<word> 1(processor);
        nFaces          11;
        startFace       66256;
        matchTolerance  0.0001;
        transform       unknown;
        myProcNo        12;
        neighbProcNo    9;
    }
    procBoundary12to13
    {
        type            processor;
        inGroups        List<word> 1(processor);
        nFaces          69;
        startFace       66267;
        matchTolerance  0.0001;
        transform       unknown;
        myProcNo        12;
        neighbProcNo    13;
    }
)

// ************************************************************************* //
