/*--------------------------------*- C++ -*----------------------------------*\
  =========                 |
  \\      /  F ield         | OpenFOAM: The Open Source CFD Toolbox
   \\    /   O peration     | Website:  https://openfoam.org
    \\  /    A nd           | Version:  7
     \\/     M anipulation  |
\*---------------------------------------------------------------------------*/
FoamFile
{
    version     2.0;
    format      ascii;
    class       dictionary;
    location    "system";
    object      sample;
}
// * * * * * * * * * * * * * * * * * * * * * * * * * * * * * * * * * * * * * //

type sets;
libs            ("libsampling.so");

interpolationScheme cell;

setFormat       raw;

writeControl    writeTime; // this ensures that it's writing only at writeInterval

sets
(

    // make sure to change (x1 y1 z1) and (x2 y2 z2) to
    // the coordinates of the start and end points

    entryWall 
    {
        type    lineCell;
        axis    xyz;
        start   (-1.0 1e-5 0.0);
        end     (1.0 1e-5 0.0);
    }
    stepWallUp 
    {
        type    lineCell;
        axis    xyz;
        start   (0.5999 1e-5 0.0);
        end     (.5999 0.1001 0.0);
    }
    stepUpperSurface 
    {
        type    lineCell;
        axis    xyz;
        start   (0.6999 .2001 0.0);
        end     (3.1 .2001 0.0);
    }
    topWall 
    {
        type    lineCell;
        axis    xyz;
        start   (-1.0 0.9999 0.0);
        end     (3.1 0.9999 0.0);
    }
    stepMiddleSurface 
    {
        type    lineCell;
        axis    xyz;
        start   (0.6001 .1001 0.0);
        end     (0.7001 .1001 0.0);
    }
    stepSecondWallUp 
    {
        type    lineCell;
        axis    xyz;
        start   (0.6999 0.1001 0.0);
        end     (0.6999 0.2001 0.0);
    }
);

fields          ( p U T rho);


// ************************************************************************* //
