/*--------------------------------*- C++ -*----------------------------------*\
  =========                 |
  \\      /  F ield         | OpenFOAM: The Open Source CFD Toolbox
   \\    /   O peration     | Website:  https://openfoam.org
    \\  /    A nd           | Version:  7
     \\/     M anipulation  |
\*---------------------------------------------------------------------------*/
FoamFile
{
    version     2.0;
    format      ascii;
    class       polyBoundaryMesh;
    location    "constant/polyMesh";
    object      boundary;
}
// * * * * * * * * * * * * * * * * * * * * * * * * * * * * * * * * * * * * * //

9
(
    inlet
    {
        type            patch;
        nFaces          79;
        startFace       32100;
    }
    outlet
    {
        type            patch;
        nFaces          0;
        startFace       32179;
    }
    bottom
    {
        type            patch;
        nFaces          0;
        startFace       32179;
    }
    top
    {
        type            patch;
        nFaces          204;
        startFace       32179;
    }
    obstacle
    {
        type            wall;
        inGroups        List<word> 1(wall);
        nFaces          0;
        startFace       32383;
    }
    defaultFaces
    {
        type            empty;
        inGroups        List<word> 1(empty);
        nFaces          32384;
        startFace       32383;
    }
    procBoundary12to8
    {
        type            processor;
        inGroups        List<word> 1(processor);
        nFaces          205;
        startFace       64767;
        matchTolerance  0.0001;
        transform       unknown;
        myProcNo        12;
        neighbProcNo    8;
    }
    procBoundary12to9
    {
        type            processor;
        inGroups        List<word> 1(processor);
        nFaces          16;
        startFace       64972;
        matchTolerance  0.0001;
        transform       unknown;
        myProcNo        12;
        neighbProcNo    9;
    }
    procBoundary12to13
    {
        type            processor;
        inGroups        List<word> 1(processor);
        nFaces          64;
        startFace       64988;
        matchTolerance  0.0001;
        transform       unknown;
        myProcNo        12;
        neighbProcNo    13;
    }
)

// ************************************************************************* //
