/*--------------------------------*- C++ -*----------------------------------*\
  =========                 |
  \\      /  F ield         | OpenFOAM: The Open Source CFD Toolbox
   \\    /   O peration     | Website:  https://openfoam.org
    \\  /    A nd           | Version:  7
     \\/     M anipulation  |
\*---------------------------------------------------------------------------*/
FoamFile
{
    version     2.0;
    format      ascii;
    class       polyBoundaryMesh;
    location    "constant/polyMesh";
    object      boundary;
}
// * * * * * * * * * * * * * * * * * * * * * * * * * * * * * * * * * * * * * //

10
(
    inlet
    {
        type            patch;
        nFaces          79;
        startFace       32736;
    }
    outlet
    {
        type            patch;
        nFaces          0;
        startFace       32815;
    }
    bottom
    {
        type            patch;
        nFaces          0;
        startFace       32815;
    }
    top
    {
        type            patch;
        nFaces          0;
        startFace       32815;
    }
    obstacle
    {
        type            wall;
        inGroups        List<word> 1(wall);
        nFaces          0;
        startFace       32815;
    }
    defaultFaces
    {
        type            empty;
        inGroups        List<word> 1(empty);
        nFaces          33024;
        startFace       32815;
    }
    procBoundary8to4
    {
        type            processor;
        inGroups        List<word> 1(processor);
        nFaces          209;
        startFace       65839;
        matchTolerance  0.0001;
        transform       unknown;
        myProcNo        8;
        neighbProcNo    4;
    }
    procBoundary8to5
    {
        type            processor;
        inGroups        List<word> 1(processor);
        nFaces          20;
        startFace       66048;
        matchTolerance  0.0001;
        transform       unknown;
        myProcNo        8;
        neighbProcNo    5;
    }
    procBoundary8to9
    {
        type            processor;
        inGroups        List<word> 1(processor);
        nFaces          59;
        startFace       66068;
        matchTolerance  0.0001;
        transform       unknown;
        myProcNo        8;
        neighbProcNo    9;
    }
    procBoundary8to12
    {
        type            processor;
        inGroups        List<word> 1(processor);
        nFaces          209;
        startFace       66127;
        matchTolerance  0.0001;
        transform       unknown;
        myProcNo        8;
        neighbProcNo    12;
    }
)

// ************************************************************************* //
