/*--------------------------------*- C++ -*----------------------------------*\
  =========                 |
  \\      /  F ield         | OpenFOAM: The Open Source CFD Toolbox
   \\    /   O peration     | Website:  https://openfoam.org
    \\  /    A nd           | Version:  7
     \\/     M anipulation  |
\*---------------------------------------------------------------------------*/
FoamFile
{
    version     2.0;
    format      ascii;
    class       polyBoundaryMesh;
    location    "constant/polyMesh";
    object      boundary;
}
// * * * * * * * * * * * * * * * * * * * * * * * * * * * * * * * * * * * * * //

12
(
    inlet
    {
        type            patch;
        nFaces          0;
        startFace       32717;
    }
    outlet
    {
        type            patch;
        nFaces          0;
        startFace       32717;
    }
    bottom
    {
        type            patch;
        nFaces          0;
        startFace       32717;
    }
    top
    {
        type            patch;
        nFaces          0;
        startFace       32717;
    }
    obstacle
    {
        type            wall;
        inGroups        List<word> 1(wall);
        nFaces          0;
        startFace       32717;
    }
    defaultFaces
    {
        type            empty;
        inGroups        List<word> 1(empty);
        nFaces          33024;
        startFace       32717;
    }
    procBoundary9to5
    {
        type            processor;
        inGroups        List<word> 1(processor);
        nFaces          237;
        startFace       65741;
        matchTolerance  0.0001;
        transform       unknown;
        myProcNo        9;
        neighbProcNo    5;
    }
    procBoundary9to6
    {
        type            processor;
        inGroups        List<word> 1(processor);
        nFaces          12;
        startFace       65978;
        matchTolerance  0.0001;
        transform       unknown;
        myProcNo        9;
        neighbProcNo    6;
    }
    procBoundary9to8
    {
        type            processor;
        inGroups        List<word> 1(processor);
        nFaces          59;
        startFace       65990;
        matchTolerance  0.0001;
        transform       unknown;
        myProcNo        9;
        neighbProcNo    8;
    }
    procBoundary9to10
    {
        type            processor;
        inGroups        List<word> 1(processor);
        nFaces          58;
        startFace       66049;
        matchTolerance  0.0001;
        transform       unknown;
        myProcNo        9;
        neighbProcNo    10;
    }
    procBoundary9to12
    {
        type            processor;
        inGroups        List<word> 1(processor);
        nFaces          11;
        startFace       66107;
        matchTolerance  0.0001;
        transform       unknown;
        myProcNo        9;
        neighbProcNo    12;
    }
    procBoundary9to13
    {
        type            processor;
        inGroups        List<word> 1(processor);
        nFaces          237;
        startFace       66118;
        matchTolerance  0.0001;
        transform       unknown;
        myProcNo        9;
        neighbProcNo    13;
    }
)

// ************************************************************************* //
