/*--------------------------------*- C++ -*----------------------------------*\
  =========                 |
  \\      /  F ield         | OpenFOAM: The Open Source CFD Toolbox
   \\    /   O peration     | Website:  https://openfoam.org
    \\  /    A nd           | Version:  7
     \\/     M anipulation  |
\*---------------------------------------------------------------------------*/
FoamFile
{
    version     2.0;
    format      ascii;
    class       polyBoundaryMesh;
    location    "constant/polyMesh";
    object      boundary;
}
// * * * * * * * * * * * * * * * * * * * * * * * * * * * * * * * * * * * * * //

6
(
    inlet
    {
        type            patch;
        nFaces          80;
        startFace       32704;
    }
    outlet
    {
        type            patch;
        nFaces          64;
        startFace       32784;
    }
    bottom
    {
        type            patch;
        nFaces          48;
        startFace       32848;
    }
    top
    {
        type            patch;
        nFaces          240;
        startFace       32896;
    }
    obstacle
    {
        type            wall;
        inGroups        List<word> 1(wall);
        nFaces          208;
        startFace       33136;
    }
    defaultFaces
    {
        type            empty;
        inGroups        List<word> 1(empty);
        nFaces          33024;
        startFace       33344;
    }
)

// ************************************************************************* //
