/*--------------------------------*- C++ -*----------------------------------*\
  =========                 |
  \\      /  F ield         | OpenFOAM: The Open Source CFD Toolbox
   \\    /   O peration     | Website:  https://openfoam.org
    \\  /    A nd           | Version:  7
     \\/     M anipulation  |
\*---------------------------------------------------------------------------*/
FoamFile
{
    version     2.0;
    format      ascii;
    class       polyBoundaryMesh;
    location    "constant/polyMesh";
    object      boundary;
}
// * * * * * * * * * * * * * * * * * * * * * * * * * * * * * * * * * * * * * //

6
(
    inlet
    {
        type            patch;
        nFaces          320;
        startFace       516864;
    }
    outlet
    {
        type            patch;
        nFaces          256;
        startFace       517184;
    }
    bottom
    {
        type            patch;
        nFaces          192;
        startFace       517440;
    }
    top
    {
        type            patch;
        nFaces          960;
        startFace       517632;
    }
    obstacle
    {
        type            wall;
        inGroups        List<word> 1(wall);
        nFaces          832;
        startFace       518592;
    }
    defaultFaces
    {
        type            empty;
        inGroups        List<word> 1(empty);
        nFaces          518144;
        startFace       519424;
    }
)

// ************************************************************************* //
