/*--------------------------------*- C++ -*----------------------------------*\
  =========                 |
  \\      /  F ield         | OpenFOAM: The Open Source CFD Toolbox
   \\    /   O peration     | Website:  https://openfoam.org
    \\  /    A nd           | Version:  7
     \\/     M anipulation  |
\*---------------------------------------------------------------------------*/
FoamFile
{
    version     2.0;
    format      ascii;
    class       polyBoundaryMesh;
    location    "constant/polyMesh";
    object      boundary;
}
// * * * * * * * * * * * * * * * * * * * * * * * * * * * * * * * * * * * * * //

11
(
    inlet
    {
        type            patch;
        nFaces          0;
        startFace       8095;
    }
    outlet
    {
        type            patch;
        nFaces          0;
        startFace       8095;
    }
    bottom
    {
        type            patch;
        nFaces          0;
        startFace       8095;
    }
    top
    {
        type            patch;
        nFaces          0;
        startFace       8095;
    }
    obstacle
    {
        type            wall;
        inGroups        List<word> 1(wall);
        nFaces          0;
        startFace       8095;
    }
    defaultFaces
    {
        type            empty;
        inGroups        List<word> 1(empty);
        nFaces          8256;
        startFace       8095;
    }
    procBoundary10to6
    {
        type            processor;
        inGroups        List<word> 1(processor);
        nFaces          129;
        startFace       16351;
        matchTolerance  0.0001;
        transform       unknown;
        myProcNo        10;
        neighbProcNo    6;
    }
    procBoundary10to9
    {
        type            processor;
        inGroups        List<word> 1(processor);
        nFaces          29;
        startFace       16480;
        matchTolerance  0.0001;
        transform       unknown;
        myProcNo        10;
        neighbProcNo    9;
    }
    procBoundary10to11
    {
        type            processor;
        inGroups        List<word> 1(processor);
        nFaces          32;
        startFace       16509;
        matchTolerance  0.0001;
        transform       unknown;
        myProcNo        10;
        neighbProcNo    11;
    }
    procBoundary10to13
    {
        type            processor;
        inGroups        List<word> 1(processor);
        nFaces          3;
        startFace       16541;
        matchTolerance  0.0001;
        transform       unknown;
        myProcNo        10;
        neighbProcNo    13;
    }
    procBoundary10to14
    {
        type            processor;
        inGroups        List<word> 1(processor);
        nFaces          129;
        startFace       16544;
        matchTolerance  0.0001;
        transform       unknown;
        myProcNo        10;
        neighbProcNo    14;
    }
)

// ************************************************************************* //
