/*--------------------------------*- C++ -*----------------------------------*\
  =========                 |
  \\      /  F ield         | OpenFOAM: The Open Source CFD Toolbox
   \\    /   O peration     | Website:  https://openfoam.org
    \\  /    A nd           | Version:  7
     \\/     M anipulation  |
\*---------------------------------------------------------------------------*/
FoamFile
{
    version     2.0;
    format      ascii;
    class       polyBoundaryMesh;
    location    "constant/polyMesh";
    object      boundary;
}
// * * * * * * * * * * * * * * * * * * * * * * * * * * * * * * * * * * * * * //

11
(
    inlet
    {
        type            patch;
        nFaces          0;
        startFace       8095;
    }
    outlet
    {
        type            patch;
        nFaces          0;
        startFace       8095;
    }
    bottom
    {
        type            patch;
        nFaces          0;
        startFace       8095;
    }
    top
    {
        type            patch;
        nFaces          0;
        startFace       8095;
    }
    obstacle
    {
        type            wall;
        inGroups        List<word> 1(wall);
        nFaces          0;
        startFace       8095;
    }
    defaultFaces
    {
        type            empty;
        inGroups        List<word> 1(empty);
        nFaces          8256;
        startFace       8095;
    }
    procBoundary6to2
    {
        type            processor;
        inGroups        List<word> 1(processor);
        nFaces          129;
        startFace       16351;
        matchTolerance  0.0001;
        transform       unknown;
        myProcNo        6;
        neighbProcNo    2;
    }
    procBoundary6to5
    {
        type            processor;
        inGroups        List<word> 1(processor);
        nFaces          26;
        startFace       16480;
        matchTolerance  0.0001;
        transform       unknown;
        myProcNo        6;
        neighbProcNo    5;
    }
    procBoundary6to7
    {
        type            processor;
        inGroups        List<word> 1(processor);
        nFaces          32;
        startFace       16506;
        matchTolerance  0.0001;
        transform       unknown;
        myProcNo        6;
        neighbProcNo    7;
    }
    procBoundary6to9
    {
        type            processor;
        inGroups        List<word> 1(processor);
        nFaces          6;
        startFace       16538;
        matchTolerance  0.0001;
        transform       unknown;
        myProcNo        6;
        neighbProcNo    9;
    }
    procBoundary6to10
    {
        type            processor;
        inGroups        List<word> 1(processor);
        nFaces          129;
        startFace       16544;
        matchTolerance  0.0001;
        transform       unknown;
        myProcNo        6;
        neighbProcNo    10;
    }
)

// ************************************************************************* //
