/*--------------------------------*- C++ -*----------------------------------*\
  =========                 |
  \\      /  F ield         | OpenFOAM: The Open Source CFD Toolbox
   \\    /   O peration     | Website:  https://openfoam.org
    \\  /    A nd           | Version:  7
     \\/     M anipulation  |
\*---------------------------------------------------------------------------*/
FoamFile
{
    version     2.0;
    format      ascii;
    class       polyBoundaryMesh;
    location    "constant/polyMesh";
    object      boundary;
}
// * * * * * * * * * * * * * * * * * * * * * * * * * * * * * * * * * * * * * //

6
(
    inlet
    {
        type            patch;
        nFaces          320;
        startFace       527104;
    }
    outlet
    {
        type            patch;
        nFaces          256;
        startFace       527424;
    }
    bottom
    {
        type            patch;
        nFaces          192;
        startFace       527680;
    }
    top
    {
        type            patch;
        nFaces          960;
        startFace       527872;
    }
    obstacle
    {
        type            wall;
        inGroups        List<word> 1(wall);
        nFaces          832;
        startFace       528832;
    }
    defaultFaces
    {
        type            empty;
        inGroups        List<word> 1(empty);
        nFaces          528384;
        startFace       529664;
    }
)

// ************************************************************************* //
