/*--------------------------------*- C++ -*----------------------------------*\
  =========                 |
  \\      /  F ield         | OpenFOAM: The Open Source CFD Toolbox
   \\    /   O peration     | Website:  https://openfoam.org
    \\  /    A nd           | Version:  7
     \\/     M anipulation  |
\*---------------------------------------------------------------------------*/
FoamFile
{
    version     2.0;
    format      ascii;
    class       polyBoundaryMesh;
    location    "constant/polyMesh";
    object      boundary;
}
// * * * * * * * * * * * * * * * * * * * * * * * * * * * * * * * * * * * * * //

6
(
    inlet
    {
        type            patch;
        nFaces          160;
        startFace       131456;
    }
    outlet
    {
        type            patch;
        nFaces          128;
        startFace       131616;
    }
    bottom
    {
        type            patch;
        nFaces          96;
        startFace       131744;
    }
    top
    {
        type            patch;
        nFaces          480;
        startFace       131840;
    }
    obstacle
    {
        type            wall;
        inGroups        List<word> 1(wall);
        nFaces          416;
        startFace       132320;
    }
    defaultFaces
    {
        type            empty;
        inGroups        List<word> 1(empty);
        nFaces          132096;
        startFace       132736;
    }
)

// ************************************************************************* //
