/*--------------------------------*- C++ -*----------------------------------*\
  =========                 |
  \\      /  F ield         | OpenFOAM: The Open Source CFD Toolbox
   \\    /   O peration     | Website:  https://openfoam.org
    \\  /    A nd           | Version:  7
     \\/     M anipulation  |
\*---------------------------------------------------------------------------*/
FoamFile
{
    version     2.0;
    format      ascii;
    class       polyBoundaryMesh;
    location    "constant/polyMesh";
    object      boundary;
}
// * * * * * * * * * * * * * * * * * * * * * * * * * * * * * * * * * * * * * //

9
(
    inlet
    {
        type            patch;
        nFaces          0;
        startFace       32067;
    }
    outlet
    {
        type            patch;
        nFaces          0;
        startFace       32067;
    }
    bottom
    {
        type            patch;
        nFaces          0;
        startFace       32067;
    }
    top
    {
        type            patch;
        nFaces          253;
        startFace       32067;
    }
    obstacle
    {
        type            wall;
        inGroups        List<word> 1(wall);
        nFaces          0;
        startFace       32320;
    }
    defaultFaces
    {
        type            empty;
        inGroups        List<word> 1(empty);
        nFaces          32384;
        startFace       32320;
    }
    procBoundary14to10
    {
        type            processor;
        inGroups        List<word> 1(processor);
        nFaces          253;
        startFace       64704;
        matchTolerance  0.0001;
        transform       unknown;
        myProcNo        14;
        neighbProcNo    10;
    }
    procBoundary14to13
    {
        type            processor;
        inGroups        List<word> 1(processor);
        nFaces          64;
        startFace       64957;
        matchTolerance  0.0001;
        transform       unknown;
        myProcNo        14;
        neighbProcNo    13;
    }
    procBoundary14to15
    {
        type            processor;
        inGroups        List<word> 1(processor);
        nFaces          64;
        startFace       65021;
        matchTolerance  0.0001;
        transform       unknown;
        myProcNo        14;
        neighbProcNo    15;
    }
)

// ************************************************************************* //
